Version 4
SHEET 1 1428 1088
WIRE -336 -416 -480 -416
WIRE -16 -416 -336 -416
WIRE 144 -416 -16 -416
WIRE 304 -416 144 -416
WIRE 720 -416 304 -416
WIRE 720 -384 720 -416
WIRE 144 -320 144 -416
WIRE 304 -320 304 -416
WIRE 640 -272 496 -272
WIRE 720 -272 720 -304
WIRE 720 -272 640 -272
WIRE 800 -272 720 -272
WIRE 912 -272 800 -272
WIRE 496 -240 496 -272
WIRE 912 -224 912 -272
WIRE 640 -192 640 -272
WIRE 144 -144 144 -240
WIRE 224 -144 144 -144
WIRE 496 -144 496 -176
WIRE 496 -144 224 -144
WIRE 496 -112 496 -144
WIRE 912 -112 912 -160
WIRE -336 -96 -336 -416
WIRE -16 -64 -16 -416
WIRE -256 -48 -288 -48
WIRE 800 -48 800 -272
WIRE 496 -16 496 -48
WIRE 640 -16 640 -112
WIRE 640 -16 496 -16
WIRE 640 32 640 -16
WIRE 640 32 496 32
WIRE -336 48 -336 0
WIRE 144 64 144 -144
WIRE 640 64 640 32
WIRE 496 80 496 32
WIRE -16 112 -16 16
WIRE 80 112 -16 112
WIRE 800 112 800 32
WIRE 800 112 704 112
WIRE 912 112 800 112
WIRE 912 160 912 112
WIRE 496 192 496 144
WIRE 640 192 640 160
WIRE 640 192 496 192
WIRE 144 224 144 160
WIRE 304 224 304 -240
WIRE 304 224 144 224
WIRE 800 224 800 112
WIRE 640 272 640 192
WIRE 640 272 400 272
WIRE 912 272 912 224
WIRE 304 288 304 224
WIRE 304 288 -128 288
WIRE -256 320 -256 -48
WIRE -128 320 -128 288
WIRE 304 352 304 288
WIRE 304 352 176 352
WIRE 640 352 640 272
WIRE 640 352 496 352
WIRE -16 384 -16 112
WIRE 800 384 800 304
WIRE 640 416 640 352
WIRE -448 432 -480 432
WIRE -256 432 -256 400
WIRE -256 432 -368 432
WIRE -128 432 -128 400
WIRE -128 432 -256 432
WIRE -80 432 -128 432
WIRE 176 432 176 352
WIRE 304 432 304 352
WIRE 496 432 496 352
WIRE -16 560 -16 480
WIRE 176 560 176 496
WIRE 304 560 304 496
WIRE 496 560 496 496
WIRE 640 560 640 496
WIRE 800 560 800 464
WIRE -432 640 -464 640
WIRE 400 640 400 272
WIRE 400 640 -368 640
FLAG -336 48 0
FLAG -480 432 Vctrl
IOPIN -480 432 In
FLAG 224 -144 A
FLAG 912 -112 0
FLAG 912 272 0
FLAG 640 560 0
FLAG 496 560 0
FLAG 800 560 0
FLAG 304 560 0
FLAG 176 560 0
FLAG -16 560 0
FLAG -464 640 RFout
IOPIN -464 640 Out
FLAG -480 -416 Vcc
IOPIN -480 -416 In
SYMBOL npn 80 64 R0
SYMATTR InstName Q18
SYMATTR Value BC182B
SYMBOL npn 704 64 M0
SYMATTR InstName Q19
SYMATTR Value BC182B
SYMBOL pnp -80 480 M180
SYMATTR InstName Q17
SYMATTR Value BC212B
SYMBOL zener 320 496 R180
WINDOW 0 24 64 Left 2
WINDOW 3 24 0 Left 2
SYMATTR InstName D1
SYMATTR Value 1N747
SYMBOL varactor 512 -112 M0
SYMATTR InstName VC1
SYMATTR Value BB105A
SYMBOL cap 192 496 R180
WINDOW 0 24 56 Left 2
WINDOW 3 24 8 Left 2
SYMATTR InstName C44
SYMATTR Value 100ｵ
SYMBOL cap 512 -176 R180
WINDOW 0 24 56 Left 2
WINDOW 3 24 8 Left 2
SYMATTR InstName C45
SYMATTR Value 150p
SYMBOL ind 656 -208 M0
SYMATTR InstName L1
SYMATTR Value 2.2ｵH
SYMBOL cap 512 144 R180
WINDOW 0 24 56 Left 2
WINDOW 3 24 8 Left 2
SYMATTR InstName C47
SYMATTR Value 68p
SYMBOL res 736 -288 R180
WINDOW 0 36 76 Left 2
WINDOW 3 36 40 Left 2
SYMATTR InstName R67
SYMATTR Value 1k
SYMBOL res 160 -224 R180
WINDOW 0 36 76 Left 2
WINDOW 3 36 40 Left 2
SYMATTR InstName R64
SYMATTR Value 2k2
SYMBOL res 0 32 R180
WINDOW 0 36 76 Left 2
WINDOW 3 36 40 Left 2
SYMATTR InstName R62
SYMATTR Value 22k
SYMBOL res -352 416 R90
WINDOW 0 0 56 VBottom 2
WINDOW 3 32 56 VTop 2
SYMATTR InstName R60
SYMATTR Value 18k
SYMBOL potentiometer -336 0 M0
SYMATTR InstName RV3
SYMATTR SpiceLine R=22k
SYMATTR SpiceLine2 wiper={P}
SYMBOL res -240 416 R180
WINDOW 0 36 76 Left 2
WINDOW 3 36 40 Left 2
SYMATTR InstName R61
SYMATTR Value 39k
SYMBOL res 320 -224 R180
WINDOW 0 36 76 Left 2
WINDOW 3 36 40 Left 2
SYMATTR InstName R65
SYMATTR Value 2k2
SYMBOL res -112 416 R180
WINDOW 0 36 76 Left 2
WINDOW 3 36 40 Left 2
SYMATTR InstName R63
SYMATTR Value 390
SYMBOL res 816 48 R180
WINDOW 0 36 76 Left 2
WINDOW 3 36 40 Left 2
SYMATTR InstName R69
SYMATTR Value 150k
SYMBOL res 816 320 R180
WINDOW 0 36 76 Left 2
WINDOW 3 36 40 Left 2
SYMATTR InstName R2
SYMATTR Value 15k
SYMBOL res 816 480 R180
WINDOW 0 36 76 Left 2
WINDOW 3 36 40 Left 2
SYMATTR InstName RV4
SYMATTR Value 30k
SYMBOL cap 896 160 R0
SYMATTR InstName C50
SYMATTR Value 470n
SYMBOL cap 896 -224 R0
SYMATTR InstName C51
SYMATTR Value 470n
SYMBOL res 656 512 R180
WINDOW 0 36 76 Left 2
WINDOW 3 36 40 Left 2
SYMATTR InstName R66
SYMATTR Value 33k
SYMBOL cap 512 496 R180
WINDOW 0 24 56 Left 2
WINDOW 3 24 8 Left 2
SYMATTR InstName C49
SYMATTR Value 22n
SYMBOL cap -368 624 R90
WINDOW 0 0 32 VBottom 2
WINDOW 3 32 32 VTop 2
SYMATTR InstName C48
SYMATTR Value 100p
TEXT -568 792 Left 2 !.tran 0 1ms 0.5ms 1ns
TEXT -280 -288 Left 2 !.inc standard.bjt\n.inc standard.dio
TEXT -496 112 Left 2 !.param P=0.5
TEXT -560 -464 Left 2 !V+ Vcc GND +12V
TEXT -568 744 Left 2 !.step param P list 0.3 0.6 0.9
